cdfs/787cdf.txt
TAPE
 11/11/19 DEE/CCET/UFSCar      100.0  2019 S 787-BUS TEST SYSTEM
BUS DATA FOLLOWS                    787 ITEMS
1114 FURNAS---GER  1  1  3 1.0500   -9.0     0.00     0.00   932.00  210.00     0.0  1.050 99989.0 -9999.0     0.0   0.000 1114    1
   2 AGRANDE  138  1  1  0 0.9780   17.0    13.00     4.20     0.00    0.00     0.0  0.000     0.0     0.0     0.0   0.000    0    2
   3 ALEGRET2 230  1  1  0 1.0260   27.0     0.00     0.00     0.00    0.00     0.0  0.000     0.0     0.0     0.0   0.000    0    3
   4 ALEGRETE2 69  1  1  0 0.9620   20.0    36.50    12.00     0.00    0.00     0.0  0.000     0.0     0.0     0.0   0.000    0    4
   5 ALEGRET2-GER  1  1  2 0.9990   20.0     0.00     0.00     0.00   34.40     0.0  0.999 99989.0 -9999.0     0.0   0.000    5    5
   6 ALEGRETE2000  1  1  0 0.9610   20.0     0.00     0.00     0.00    0.00     0.0  0.000     0.0     0.0     0.0   0.000    0    6
   7 ALEGRET1 138  1  1  0 1.0010   20.0     0.00     0.00     0.00    0.00     0.0  0.000     0.0     0.0     0.0   0.000    0    7
   8 ALEGRET 1 69  1  1  0 0.9580   20.0    25.00     8.20     0.00    0.00     0.0  0.000     0.0     0.0     0.0   0.000    0    8
   9 BAGE  2  230  1  1  0 1.0400   31.0    44.90    16.00     0.00    0.00     0.0  0.000     0.0     0.0     0.0   0.000    0    9
  11 B.GONC 3 230  1  1  0 0.9590    8.0    48.00    17.90     0.00    0.00     0.0  0.000     0.0     0.0     0.0   0.000    0   10
  18 CCORINHA  69  1  1  0 1.0010    2.0    55.20    18.00     0.00    0.00     0.0  0.000     0.0     0.0     0.0   0.000    0   11
  19 CCORINHA GER  1  1  2 1.0190    5.0     0.00     0.00     0.00   27.20     0.0  1.019    30.0   -15.0     0.0   0.000   19   12
  22 CCORINHA 138  1  1  0 0.9870    5.0    22.70     7.40     0.00    0.00     0.0  0.000     0.0     0.0     0.0   0.000    0   13
  23 CALTA 1  138  1  1  0 1.0020   22.0    39.50    13.00     0.00    0.00     0.0  0.000     0.0     0.0     0.0   0.000    0   14
  27 CACAPAVA 138  1  1  0 0.9470   24.0     7.50     3.00     0.00    0.00     0.0  0.000     0.0     0.0     0.0   0.000    0   15
  28 CCORINHA 000  1  1  0 1.0330    5.0     0.00     0.00     0.00    0.00     0.0  0.000     0.0     0.0     0.0   0.000    0   16
  29 CANASTRA 138  1  1  2 0.9880    3.0    26.60     8.70    38.00   22.10     0.0  0.988 99926.0 -9915.0     0.0   0.000   29   17
  35 CAMAQUA  230  1  1  0 0.9820   17.0    31.80    12.20     0.00    0.00     0.0  0.000     0.0     0.0     0.0   0.000    0   18
  38 CAMPOBOM 230  1  1  2 0.9750    9.0   123.00    40.50     0.00   26.60     0.0  0.975    30.0   -15.0     0.0   0.000   38   19
  44 CANDIOTA-525  1  1  0 1.0010   34.0     0.00     0.00     0.00    0.00     0.0  0.000     0.0     0.0     0.0   0.000    0   20
  45 CANDIOT3 230  1  1  0 1.0390   32.0     0.00     0.00     0.00    0.00     0.0  0.000     0.0     0.0     0.0   0.000    0   21
  46 CANDIOTA3GER  1  1  2 1.0190   37.0     0.00     0.00   315.00  107.00     0.0  1.019   173.0   -55.0     0.0   0.000   46   22
  47 CAXIAS 7 230  1  1  0 0.9700    9.0    24.70    10.50     0.00    0.00     0.0  0.000     0.0     0.0     0.0   0.000    0   23
  49 CAXIAS 2 230  1  1  0 0.9570    7.0    87.00    28.70     0.00    0.00     0.0  0.000     0.0     0.0     0.0   0.000    0   24
  53 C.IND.   230  1  1  0 0.9730   10.0   107.00    35.40     0.00    0.00     0.0  0.000     0.0     0.0     0.0   0.000    0   25
  54 C.IND.   138  1  1  0 0.9950    7.0     3.50     2.20     0.00    0.00     0.0  0.000     0.0     0.0     0.0   0.000    0   26
  57 CHARQUEAD 69  1  1  0 1.0040    8.0    96.70    31.90     0.00    0.00     0.0  0.000     0.0     0.0     0.0   0.000    0   27
  62 COPESUL  230  1  1  0 0.9680   10.0   221.00    72.60     0.00   36.00     0.0  0.000     0.0     0.0     0.0   0.000    0   28
  63 COPESUL   69  1  1  0 0.9690    2.0   122.00    70.70     0.00    0.00     0.0  0.000     0.0     0.0     0.0   0.000    0   29
  65 DFRANCIS 230  1  1  0 1.0390   26.0    12.60     5.00     0.00    0.00     0.0  0.000     0.0     0.0     0.0   0.000    0   30
  67 DFRANCIS-GER  1  1  2 1.0490   31.0     0.00     0.00   122.00   18.90     0.0  1.049  9062.0 -9062.0     0.0   0.000   67   31
  71 EREXIM 1 138  1  1  0 0.9560   11.0    48.20    15.90     2.00    0.00     0.0  0.000     0.0     0.0     0.0   0.000    0   32
  76 EVELHA   138  1  1  0 0.9670    4.0    44.20    18.80     0.00    0.00     0.0  0.000     0.0     0.0     0.0   0.000    0   33
  79 FARRO     69  1  1  0 0.9430    5.0   112.00    36.90     0.00    0.00     0.0  0.000     0.0     0.0     0.0   0.000    0   34
  80 GRAVATA2 230  1  1  0 0.9810   11.0    22.70     9.00     0.00    0.00     0.0  0.000     0.0     0.0     0.0   0.000    0   35
  81 GRAVATAI2 69  1  1  0 0.9550    7.0   107.00    54.70     0.00    0.00     0.0  0.000     0.0     0.0     0.0   0.000    0   36
  82 GRAVATAI2GER  1  1  2 0.9790    7.0     0.00     0.00     0.00   44.20     0.0  0.979   100.0   -50.0     0.0   0.000   82   37
  83 GRAVATAI2000  1  1  0 0.9540    7.0     0.00     0.00     0.00    0.00     0.0  0.000     0.0     0.0     0.0   0.000    0   38
  84 GUAIBA 2 230  1  1  0 0.9640   11.0    68.90    34.90     0.00    0.00     0.0  0.000     0.0     0.0     0.0   0.000    0   39
  86 GUARITA  230  1  1  0 1.0020   20.0    56.10    18.50     0.00    0.00     0.0  0.000     0.0     0.0     0.0   0.000    0   40
  93 ITAUBA   230  1  1  0 1.0340   25.0     0.00     0.00     0.00    0.00     0.0  0.000     0.0     0.0     0.0   0.000    0   41
  94 ITAUBA-A-GER  1  1  2 1.0390   31.0     0.00     0.00   450.00   42.40     0.0  1.039  9260.0 -9240.0     0.0   0.000   94   42
  98 JACUI    138  1  1  0 1.0390   25.0    25.30     9.50     0.00    0.00     0.0  0.000     0.0     0.0     0.0   0.000    0   43
  99 JACUI-A--GER  1  1  2 1.0190   35.0     0.00     0.00   179.00   69.80     0.0  1.019  9090.0 -9072.0     0.0   0.000   99   44
 100 JAGUARAO 138  1  1  0 0.9660   15.0    18.20     5.30     0.00    0.00     0.0  0.000     0.0     0.0     0.0   0.000    0   45
 107 LIVRAME2 230  1  1  0 1.0380   27.0    35.70    11.70     0.00    0.00     0.0  0.000     0.0     0.0     0.0   0.000    0   46
 109 LAJEAD2 230   1  1  0 0.9700   13.0    73.40    24.20     0.00    0.00     0.0  0.000     0.0     0.0     0.0   0.000    0   47
 111 LVERMELH 138  1  1  0 1.0000    7.0     8.00     2.60     0.00    0.00     0.0  0.000     0.0     0.0     0.0   0.000    0   48
 112 LVERMELH 230  1  1  0 0.9970   12.0     0.00     0.00     0.00    0.00     0.0  0.000     0.0     0.0     0.0   0.000    0   49
 114 MACAMBA  230  1  1  0 1.0260   29.0     0.00     0.00     0.00    0.00     0.0  0.000     0.0     0.0     0.0   0.000    0   50
 115 MACAMBA   69  1  1  0 0.9750   26.0    36.80     9.20     0.00    0.00     0.0  0.000     0.0     0.0     0.0   0.000    0   51
 116 MACAMBAR-GER  1  1  2 1.0190   30.0     0.00     0.00     0.00   21.60     0.0  1.019    30.0  -930.0     0.0   0.000  116   52
 117 MACAMBA  000  1  1  0 0.9950   29.0     0.00     0.00     0.00    0.00     0.0  0.000     0.0     0.0     0.0   0.000    0   53
 119 MARMELEIR230  1  1  0 0.9530   11.0     0.00     0.00     0.00    0.00     0.0  0.000     0.0     0.0     0.0   0.000    0   54
 120 MARMELEIR 69  1  1  0 0.9980    7.0    79.20    11.40     0.00    0.00     0.0  0.000     0.0     0.0     0.0   0.000    0   55
 121 MARMELEI-GER  1  1  2 1.0190    7.0     0.00     0.00     0.00   15.40     0.0  1.019    60.0   -30.0     0.0   0.000  121   56
 122 MARMELEI-000  1  1  0 1.0030    7.0     0.00     0.00     0.00    0.00     0.0  0.000     0.0     0.0     0.0   0.000    0   57
 123 MCOBRE   138  1  1  0 0.9550   24.0    17.30    10.70     0.00    0.00     0.0  0.000     0.0     0.0     0.0   0.000    0   58
 127 NPRATA 2 230  1  1  0 0.9860   11.0    43.30    14.20     0.00    0.00     0.0  0.000     0.0     0.0     0.0   0.000    0   59
 131 OSORIO   230  1  1  0 0.9510    7.0    46.40     9.50     0.00    0.00     0.0  0.000     0.0     0.0     0.0   0.000    0   60
 135 OSORIO   138  1  1  0 0.9340    4.0    43.50    13.90     0.00    0.00     0.0  0.000     0.0     0.0     0.0   0.000    0   61
 140 PAL  4   230  1  1  0 0.9670    9.0    70.00    26.00     0.00    0.00     0.0  0.000     0.0     0.0     0.0   0.000    0   62
 143 PAL  6   230  1  1  0 0.9680    9.0    55.00    18.10     0.00    0.00     0.0  0.000     0.0     0.0     0.0   0.000    0   63
 144 PAL  6    69  1  1  0 0.9860    4.0   172.00    56.00     0.00    0.00     0.0  0.000     0.0     0.0     0.0   0.000    0   64
 145 PAL 6----GER  1  1  2 1.0000    4.0     0.00     0.00     0.00   20.30     0.0  1.000    30.0   -15.0     0.0   0.000  145   65
 146 PAL  6   000  1  1  0 0.9860    4.0     0.04     0.00     0.00    0.00     0.0  0.000     0.0     0.0     0.0   0.000    0   66
 147 PAL 7    230  1  1  0 0.9630   10.0   104.00    34.20     0.00    0.00     0.0  0.000     0.0     0.0     0.0   0.000    0   67
 148 PAL  8   230  1  1  0 0.9750   10.0   145.00    48.00     0.00    0.00     0.0  0.000     0.0     0.0     0.0   0.000    0   68
 150 PAL  9   230  1  1  0 0.9640   10.0    37.10    11.00     0.00    0.00     0.0  0.000     0.0     0.0     0.0   0.000    0   69
 151 PAL  9    69  1  1  0 0.9050    0.0   115.00    51.00     0.00    0.00     0.0  0.000     0.0     0.0     0.0   0.000    0   70
 152 PAL  9    13  1  1  2 0.9250    0.0     0.00     0.00     0.00   19.00     0.0  0.925    19.0    -9.5     0.0   0.000  152   71
 153 PAL  9   000  1  1  0 0.9030    0.0     0.00     0.00     0.00    0.00     0.0  0.000     0.0     0.0     0.0   0.000    0   72
 154 PAL  10  230  1  1  0 0.9680    9.0    25.70    10.90     0.00    0.00     0.0  0.000     0.0     0.0     0.0   0.000    0   73
 157 PAL  13  230  1  1  0 0.9650    9.0    61.30    20.20     0.00    0.00     0.0  0.000     0.0     0.0     0.0   0.000    0   74
 162 PAL  6   000  1  1  0 0.9860    4.0     0.00     0.00     0.00    0.00     0.0  0.000     0.0     0.0     0.0   0.000    0   75
 164 PELOTAS  000  1  1  0 1.0130   15.0     0.00     0.00     0.00    0.00     0.0  0.000     0.0     0.0     0.0   0.000    0   76
 165 PELOTAS3 230  1  1  0 0.9840   20.0     0.00     0.00     0.00    0.00     0.0  0.000     0.0     0.0     0.0   0.000    0   77
 166 PELOTAS 3 69  1  1  0 1.0160   15.0   133.00    43.70     0.00    0.00     0.0  0.000     0.0     0.0     0.0   0.000    0   78
 167 PELOTAS  GER  1  1  2 1.0490   15.0     0.00     0.00     0.00   35.10     0.0  1.049   100.0   -50.0     0.0   0.000  167   79
 168 PIREL-SUL138  1  1  0 0.9830    6.0     1.60     1.00     0.00    0.00     0.0  0.000     0.0     0.0     0.0   0.000    0   80
 171 PLANSUL  138  1  1  0 0.9850    5.0     8.70     5.40     0.00    0.00     0.0  0.000     0.0     0.0     0.0   0.000    0   81
 172 PMEDICI  230  1  1  0 1.0350   31.0     0.00     0.00     0.00    0.00     0.0  0.000     0.0     0.0     0.0   0.000    0   82
 173 PMEDICI  138  1  1  0 0.9980   27.0    23.50    12.20     0.00    0.00     0.0  0.000     0.0     0.0     0.0   0.000    0   83
 175 PMEDICIA-GER  1  1  2 1.0390   35.0     0.00     0.00   112.00    9.99     0.0  1.039  9098.0 -9028.0     0.0   0.000  175   84
 176 PMEDICIB-GER  1  1  2 1.0390   36.0     0.00     0.00   290.00   24.90     0.0  1.039  9053.0 -9026.0     0.0   0.000  176   85
 179 POSORIO  230  1  1  0 0.9890   22.0     0.00     0.00     0.00    0.00     0.0  0.000     0.0     0.0     0.0   0.000    0   86
 180 POSORIO  138  1  1  0 0.9980   19.0     6.30     2.90     0.00    0.00     0.0  0.000     0.0     0.0     0.0   0.000    0   87
 181 PREAL    230  1  1  0 1.0310   23.0     0.00     0.00     0.00    0.00     0.0  0.000     0.0     0.0     0.0   0.000    0   88
 182 PREAL    138  1  1  0 1.0360   25.0     0.00     0.00     0.00    0.00     0.0  0.000     0.0     0.0     0.0   0.000    0   89
 183 PREAL-A--GER  1  1  2 1.0390   28.0     0.00     0.00   126.00   16.10     0.0  1.039  9078.0 -9080.0     0.0   0.000  183   90
 184 QUINTA   000  1  1  0 1.0220   12.0     0.00     0.00     0.00    0.00     0.0  0.000     0.0     0.0     0.0   0.000    0   91
 185 QUINTA---GER  1  1  2 1.0490   12.0     0.00     0.00     0.00   27.80     0.0  1.049 99950.0 -9925.0     0.0   0.000  185   92
 186 QUINTA   230  1  1  0 0.9760   18.0     0.00     0.00     0.00    0.00     0.0  0.000     0.0     0.0     0.0   0.000    0   93
 187 QUINTA    69  1  1  0 1.0210   12.0    86.00    28.30     0.00    0.00     0.0  0.000     0.0     0.0     0.0   0.000    0   94
 188 RGRANDE4 230  1  1  0 0.9740   18.0    19.30     9.40     0.00    0.00     0.0  0.000     0.0     0.0     0.0   0.000    0   95
 189 SANGELO2 230  1  1  2 1.0190   27.0    59.50    11.50     0.00   10.80     0.0  1.019   200.0  -100.0     0.0   0.000  189   96
 193 SARANDI  230  1  1  0 1.0100   17.0    26.70     8.80     0.00    0.00     0.0  0.000     0.0     0.0     0.0   0.000    0   97
 195 SBORJA 2 230  1  1  0 1.0200   32.0    33.70    13.00     0.00    0.00     0.0  0.000     0.0     0.0     0.0   0.000    0   98
 197 SCHARLAU 138  1  1  0 0.9730    4.0    60.60    19.90     0.00    0.00     0.0  0.000     0.0     0.0     0.0   0.000    0   99
 198 SCHARLAU  69  1  1  0 0.9970    4.0     0.00     0.00     0.00    0.00     0.0  0.000     0.0     0.0     0.0   0.000    0  100
 199 SCHARLAU-GER  1  1  2 0.9970    4.0     0.00     0.00     0.00   17.90     0.0  0.997    19.0    -9.5     0.0   0.000  199  101
 200 SCHARLAU 000  1  1  0 0.9700    4.0     0.00     0.00     0.00    0.00     0.0  0.000     0.0     0.0     0.0   0.000    0  102
 201 SCRUZ 1  230  1  1  0 0.9450    7.0    83.60    27.50     0.00    0.00     0.0  0.000     0.0     0.0     0.0   0.000    0  103
 203 S.LUIZ   230  1  1  0 1.0190   32.0    33.10     7.50     0.00    0.00     0.0  0.000     0.0     0.0     0.0   0.000    0  104
 204 URUGUAI-5 69  1  1  0 1.0460   19.0    74.00    24.60     0.00    0.00     0.0  0.000     0.0     0.0     0.0   0.000    0  105
 205 SIDERURG 230  1  1  0 0.9720   10.0    12.70     7.50     0.00    0.00     0.0  0.000     0.0     0.0     0.0   0.000    0  106
 206 SANANDUV 138  1  1  0 0.9800    5.0    10.20     3.70     0.00    0.00     0.0  0.000     0.0     0.0     0.0   0.000    0  107
 208 SMARIA 1 138  1  1  0 0.9980   21.0    31.00    12.40     0.00    0.00     0.0  0.000     0.0     0.0     0.0   0.000    0  108
 209 SMARIA 3 230  1  1  0 1.0340   25.0    44.20    15.30     0.00    0.00     0.0  0.000     0.0     0.0     0.0   0.000    0  109
 213 SMARTA   230  1  1  0 1.0070   18.0    56.00    21.40     0.00    0.00     0.0  0.000     0.0     0.0     0.0   0.000    0  110
 217 SVICENTE 230  1  1  0 1.0250   25.0    43.10    19.80     0.00    0.00     0.0  0.000     0.0     0.0     0.0   0.000    0  111
 219 SMARTA   138  1  1  0 0.9400    3.0    30.80    12.70     3.00    0.00     0.0  0.000     0.0     0.0     0.0   0.000    0  112
 220 TCOROAS  138  1  1  0 0.9800    2.0    12.00     4.00     0.00    0.00     0.0  0.000     0.0     0.0     0.0   0.000    0  113
 223 TAQUARA  138  1  1  0 0.9770    2.0    35.80    12.00     0.00    0.00     0.0  0.000     0.0     0.0     0.0   0.000    0  114
 224 TRESMAIO 230  1  1  0 1.0030   23.0    24.00     4.90     0.00    0.00     0.0  0.000     0.0     0.0     0.0   0.000    0  115
 228 TAPEJARA 138  1  1  0 0.9740    5.0     7.00     2.30     0.00    0.00     0.0  0.000     0.0     0.0     0.0   0.000    0  116
 230 SROSA    230  1  1  0 1.0090   25.0    52.90    17.40     0.00    0.00     0.0  0.000     0.0     0.0     0.0   0.000    0  117
 233 TAPERA 2 230  1  1  0 1.0160   20.0    31.50    13.90     0.00    0.00     0.0  0.000     0.0     0.0     0.0   0.000    0  118
 234 ASSIS----525  1  1  0 1.0230   11.0     0.00     0.00     0.00    0.00     0.0  0.000     0.0     0.0     0.0   0.000    0  119
 236 URUGUAI5 230  1  1  0 0.9710   22.0     0.00     0.00     0.00    0.00     0.0  0.000     0.0     0.0     0.0   0.000    0  120
 238 URUGUAI5-GER  1  1  2 1.0390   19.0     0.00     0.00     0.00  -10.40     0.0  1.039    60.0   -30.0     0.0   0.000  238  121
 239 URUGUAIA5000  1  1  0 1.0450   19.0     0.00     0.00     0.00    0.00     0.0  0.000     0.0     0.0     0.0   0.000    0  122
 242 VACARIA  138  1  1  0 0.9750    5.0    20.80     6.80     0.00    0.00     0.0  0.000     0.0     0.0     0.0   0.000    0  123
 243 V.AIRES  230  1  1  0 0.9810   14.0     0.00     0.00     0.00    0.00     0.0  0.000     0.0     0.0     0.0   0.000    0  124
 245 V.AIRES  GER  1  1  2 0.9920   10.0     0.00     0.00     0.00   19.00     0.0  0.992    19.0    -9.5     0.0   0.000  245  125
 246 V.AIRES  000  1  1  0 0.9710   10.0     0.00     0.00     0.00    0.00     0.0  0.000     0.0     0.0     0.0   0.000    0  126
 248 V.AIRES   69  1  1  0 0.9710   10.0    64.50    29.60     0.00    0.00     0.0  0.000     0.0     0.0     0.0   0.000    0  127
 249 WMARTINS 138  1  1  0 0.9800    5.0     0.10     0.10     0.00    0.00     0.0  0.000     0.0     0.0     0.0   0.000    0  128
 250 ZOOLOGIC 138  1  1  0 0.9760    5.0    52.40    17.20     0.00    0.00     0.0  0.000     0.0     0.0     0.0   0.000    0  129
 252 BIGUACU  138  1  1  0 0.9730    6.0    13.40     4.50     0.00    0.00     0.0  0.000     0.0     0.0     0.0   0.000    0  130
 257 I.CENTRO 138  1  1  0 0.9770    6.0    46.80    15.60     0.00    0.00     0.0  0.000     0.0     0.0     0.0   0.000    0  131
 260 PALHOCA-C138  1  1  0 0.9880    7.0    20.20     6.70     0.00    0.00     0.0  0.000     0.0     0.0     0.0   0.000    0  132
 261 ROCADO    69  1  1  0 1.0010    4.0    35.30    11.80     0.00    0.00     0.0  0.000     0.0     0.0     0.0   0.000    0  133
 262 ROCADO   138  1  1  0 0.9780    6.0    49.60    16.50     0.00    0.00     0.0  0.000     0.0     0.0     0.0   0.000    0  134
 264 TRINDADE 138  1  1  0 0.9730    6.0    46.40    15.50     0.00    0.00     0.0  0.000     0.0     0.0     0.0   0.000    0  135
 266 US.GARCIA 69  1  1  2 1.0190    6.0     0.00     0.00     6.80    0.95     0.0  1.019     5.0    -4.0     0.0   0.000  266  136
 269 CANOINHAS138  1  1  0 0.9870    8.0    41.50    18.60     0.00    0.00     0.0  0.000     0.0     0.0     0.0   0.000    0  137
 273 GUARAMER.138  1  1  0 0.9540    6.0    12.90     4.30     0.00    0.00     0.0  0.000     0.0     0.0     0.0   0.000    0  138
 274 JARAGUA   34  1  1  0 1.0000    6.0     0.00     0.00     0.00    0.00     0.0  0.000     0.0     0.0     0.0   0.000    0  139
 275 JARAGUA   69  1  1  0 0.9780    2.0    19.60     6.50     0.00    0.00     0.0  0.000     0.0     0.0     0.0   0.000    0  140
 276 JARAGUA  138  1  1  0 0.9500    5.0    23.10     7.70     0.00    0.00     0.0  0.000     0.0     0.0     0.0   0.000    0  141
 279 JOINV. I  69  1  1  0 1.0260    2.0    81.50    32.70     0.00    0.00     0.0  0.000     0.0     0.0     0.0   0.000    0  142
 281 JOINV.IV 138  1  1  0 0.9510    6.0    53.20    17.70     0.00    0.00     0.0  0.000     0.0     0.0     0.0   0.000    0  143
 282 JOINV.IV  69  1  1  0 0.9940    5.0    38.00    23.60     0.00    0.00     0.0  0.000     0.0     0.0     0.0   0.000    0  144
 284 JOINV.VI 138  1  1  0 0.9500    6.0    52.00    17.30     0.00    0.00     0.0  0.000     0.0     0.0     0.0   0.000    0  145
 285 JOINV.VII138  1  1  0 0.9550    5.0    43.10    14.40     0.00    0.00     0.0  0.000     0.0     0.0     0.0   0.000    0  146
 290 MAFRA    138  1  1  0 0.9590    6.0    29.10     9.70     0.00    0.00     0.0  0.000     0.0     0.0     0.0   0.000    0  147
 292 R.NEGRIN.138  1  1  0 0.9530    5.0    12.80     4.30     0.00    0.00     0.0  0.000     0.0     0.0     0.0   0.000    0  148
 293 S.BENTO  138  1  1  0 0.9500    5.0    34.20    11.40     0.00    0.00     0.0  0.000     0.0     0.0     0.0   0.000    0  149
 298 BRACINHO  34  1  1  2 1.0290    8.0     0.00     0.00    13.00   -1.26     0.0  1.029     8.0    -7.0     0.0   0.000  298  150
 305 BL.GARCIA 69  1  1  0 1.0000    3.0    51.20    22.90     0.00    0.00     0.0  0.000     0.0     0.0     0.0   0.000    0  151
 306 BL.GARCIA138  1  1  0 0.9940    6.0     0.00     0.00     0.00    0.00     0.0  0.000     0.0     0.0     0.0   0.000    0  152
 307 BLUMEN 2  69  1  1  0 1.0350    5.0     0.00     0.00     0.00    0.00     0.0  0.000     0.0     0.0     0.0   0.000    0  153
 308 BLUM. II 138  1  1  0 1.0160    8.0    58.50    19.50     0.00    0.00     0.0  0.000     0.0     0.0     0.0   0.000    0  154
 309 BLUM.III 138  1  1  0 1.0010    6.0    64.90    21.60     0.00    0.00     0.0  0.000     0.0     0.0     0.0   0.000    0  155
 315 BRUSQUE  138  1  1  0 0.9710    5.0    45.70    15.20     0.00    0.00     0.0  0.000     0.0     0.0     0.0   0.000    0  156
 321 GASPAR   138  1  1  0 1.0080    7.0    25.50     8.50     0.00    0.00     0.0  0.000     0.0     0.0     0.0   0.000    0  157
 324 IBIRAMA   69  1  1  0 0.9600    0.0    20.90     7.00     0.00    0.00     0.0  0.000     0.0     0.0     0.0   0.000    0  158
 325 ILHOTA    69  1  1  0 0.9150    2.0    53.40    18.00     0.00    0.00     0.0  0.000     0.0     0.0     0.0   0.000    0  159
 327 INDAIAL A 69  1  1  0 0.9700    0.0     0.00     0.00     0.00    0.00     0.0  0.000     0.0     0.0     0.0   0.000    0  160
 328 INDAIAL B 69  1  1  0 1.0000    2.0     0.00     0.00     0.00    0.00     0.0  0.000     0.0     0.0     0.0   0.000    0  161
 331 ITAJAI II138  1  1  0 0.9610    4.0    59.80    19.90     0.00    0.00     0.0  0.000     0.0     0.0     0.0   0.000    0  162
 334 PICARRAS 138  1  1  0 0.9640    5.0    13.60     4.50     0.00    0.00     0.0  0.000     0.0     0.0     0.0   0.000    0  163
 336 RIO SUL   69  1  1  0 0.9870    0.0    32.40    10.80     0.00    0.00     0.0  0.000     0.0     0.0     0.0   0.000    0  164
 337 RIO SUL  138  1  1  0 0.9530    2.0    40.10    13.40     0.00    0.00     0.0  0.000     0.0     0.0     0.0   0.000    0  165
 340 BL.SALTO  69  1  1  2 1.0140    4.0    42.70    19.30     5.00    0.09     0.0  1.014     4.5    -3.5     0.0   0.000  340  166
 343 TIJUCAS  138  1  1  0 0.9670    5.0    27.30     9.10     0.00    0.00     0.0  0.000     0.0     0.0     0.0   0.000    0  167
 344 TIMBO     69  1  1  0 0.9700    0.0    22.20     7.40     0.00    0.00     0.0  0.000     0.0     0.0     0.0   0.000    0  168
 345 TIMBO    138  1  1  0 1.0010    6.0    13.20     4.40     0.00    0.00     0.0  0.000     0.0     0.0     0.0   0.000    0  169
 346 TROMBUDO 138  1  1  0 0.9510    2.0    16.60     5.50     0.00    0.00     0.0  0.000     0.0     0.0     0.0   0.024    0  170
 349 PALMEIRAS 69  1  1  2 1.0160    2.0     1.80     1.20    20.00   14.50     0.0  1.016    14.5   -11.0     0.0   0.000  349  171
 353 OTACILIO  69  1  1  0 0.9450    0.0    52.10    25.20     1.00    0.20     0.0  0.000     0.0     0.0     0.0   0.096    0  172
 355 OTACILIO 138  1  1  0 0.9190    3.0     0.00     0.00     0.00    0.00     0.0  0.000     0.0     0.0     0.0   0.000    0  173
 359 S.JOAQUIM138  1  1  0 0.9870    9.0    13.30     4.40     0.00    0.00     0.0  0.000     0.0     0.0     0.0   0.024    0  174
 361 LAGES II 138  1  1  0 0.9550    6.0    28.50     9.50     0.00    0.00     0.0  0.000     0.0     0.0     0.0   0.036    0  175
 363 V.RAMOS   69  1  1  0 0.9910    3.0    31.30    13.00     2.70    0.40     0.0  0.000     0.0     0.0     0.0   0.048    0  176
 364 V.RAMOS  138  1  1  0 0.9560    6.0     0.00     0.00     0.00    0.00     0.0  0.000     0.0     0.0     0.0   0.000    0  177
 366 CACADOR  138  1  1  0 0.9970    8.0    23.40     7.80     0.00    0.00     0.0  0.000     0.0     0.0     0.0   0.030    0  178
 367 C. NOVOS 138  1  1  0 1.0080    9.0     9.60     3.20     0.00    0.00     0.0  0.000     0.0     0.0     0.0   0.012    0  179
 369 FIC.C.NOV138  1  1  0 1.0090    9.0     0.00     0.00     0.00    0.00     0.0  0.000     0.0     0.0     0.0   0.000    0  180
 371 HERVAL    69  1  1  0 1.0230    8.0    26.80     8.90     1.90    0.00     0.0  0.000     0.0     0.0     0.0   0.048    0  181
 372 HERVAL   138  1  1  0 1.0320   11.0    20.10     6.70     0.00    0.00     0.0  0.000     0.0     0.0     0.0   0.000    0  182
 375 VIDEIRA  138  1  1  0 1.0080    9.0    54.10    18.00     0.00    0.00     0.0  0.000     0.0     0.0     0.0   0.042    0  183
 380 CHAPECO  138  1  1  0 0.9830    9.0    42.90    14.30     0.00    0.00     0.0  0.000     0.0     0.0     0.0   0.000    0  184
 388 PINHALZ. 138  1  1  0 0.9640    6.0    52.30    17.40     0.00    0.00     0.0  0.000     0.0     0.0     0.0   0.060    0  185
 396 S.MIGUEL 138  1  1  0 0.9470    4.0    55.50    18.50     0.00    0.00     0.0  0.000     0.0     0.0     0.0   0.072    0  186
 399 XANXERE   69  1  1  2 0.9770    7.0   113.00    41.80     3.60    1.00     0.0  0.977     1.0     0.0     0.0   0.000  399  187
 407 CRICIUMA  69  1  1  0 1.0030   10.0    65.30    21.80     0.00    0.00     0.0  0.000     0.0     0.0     0.0   0.000    0  188
 408 CRICIUMA2 69  1  1  0 1.0030   10.0    37.10    12.40     0.00    0.00     0.0  0.000     0.0     0.0     0.0   0.000    0  189
 412 FORQUILH. 69  1  1  0 1.0140   12.0    58.80    19.60     0.00    0.00     0.0  0.000     0.0     0.0     0.0   0.000    0  190
 417 I.C.C.   138  1  1  0 0.9950    9.0     5.80     3.60     0.00    0.00     0.0  0.000     0.0     0.0     0.0   0.000    0  191
 422 J.LACERDA 69  1  1  0 1.0000    9.0    75.10    25.00     0.00    0.00     0.0  0.000     0.0     0.0     0.0   0.000    0  192
 427 LAGUNA   138  1  1  0 0.9870    9.0    14.30     4.80     0.00    0.00     0.0  0.000     0.0     0.0     0.0   0.000    0  193
 436 PRO/FORQ. 69  1  1  0 1.0140   11.0    18.50    11.40     0.00    0.00     0.0  0.000     0.0     0.0     0.0   0.000    0  194
 437 PRO/SIDER.69  1  1  0 1.0130   11.0    11.00     6.80     0.00    0.00     0.0  0.000     0.0     0.0     0.0   0.000    0  195
 441 SIDEROP.E.69  1  1  0 1.0120   11.0    61.50    20.50     0.00    0.00     0.0  0.000     0.0     0.0     0.0   0.000    0  196
 447 TUBARAO  138  1  1  0 1.0210   12.0    13.40     4.50     0.00    0.00     0.0  0.000     0.0     0.0     0.0   0.000    0  197
 452 ACHATEAU-138  1  1  0 0.9910   15.0    19.80     7.80     0.00    0.00     0.0  0.000     0.0     0.0     0.0   0.048    0  198
 454 ANDIRA---138  1  1  0 0.9790    0.0    19.50     7.70     0.00    0.00     0.0  0.000     0.0     0.0     0.0   0.072    0  199
 455 ANDIRA--- 88  1  1  0 1.0090    0.0     0.00     0.00     0.00    0.00     0.0  0.000     0.0     0.0     0.0   0.000    0  200
...
-999
BRANCH DATA FOLLOWS                1309 ITEMS
   2  100  1  1 1 0  0.038000  0.116900  0.028110     0     0     0    0 0  0.0000   0.000 0.0000 0.0000 0.0000     0.0    0.0     1
   2  180  1  1 1 0  0.035200  0.131000  0.031000     0     0     0    0 0  0.0000   0.000 0.0000 0.0000 0.0000     0.0    0.0     2
   3    6  1  1 1 2  0.000000  0.181900  0.000000     0     0     0    0 0  1.1000   0.000 0.9000 1.1000 0.0033     0.0    0.0     3
   3  107  1  1 1 0  0.025210  0.125930  0.225720     0     0     0    0 0  0.0000   0.000 0.0000 0.0000 0.0000     0.0    0.0     4
   3  114  1  1 1 0  0.016240  0.081090  0.145350     0     0     0    0 0  0.0000   0.000 0.0000 0.0000 0.0000     0.0    0.0     5
   3  217  1  1 1 0  0.018200  0.101200  0.185700     0     0     0    0 0  0.0000   0.000 0.0000 0.0000 0.0000     0.0    0.0     6
   3  236  1  1 1 0  0.023100  0.115400  0.206900     0     0     0    0 0  0.0000   0.000 0.0000 0.0000 0.0000     0.0    0.0     7
   3  713  1  1 1 0  0.019854  0.151610  0.352500     0     0     0    0 0  0.0000   0.000 0.0000 0.0000 0.0000     0.0    0.0     8
   4    6  1  1 1 0  0.000000 -0.013300  0.000000     0     0     0    0 0  0.0000   0.000 0.0000 0.0000 0.0000     0.0    0.0     9
   4    8  1  1 1 0  0.015200  0.044000  0.000800     0     0     0    0 0  0.0000   0.000 0.0000 0.0000 0.0000     0.0    0.0    10
   5    6  1  1 1 0  0.000000  0.114500  0.000000     0     0     0    0 0  0.0000   0.000 0.0000 0.0000 0.0000     0.0    0.0    11
   7    8  1  1 1 2  0.000000  0.149650  0.000000     0     0     0    0 0  1.0390   0.000 0.8720 1.0560 0.0074     0.0    0.0    12
   7  208  1  1 1 0  0.166200  0.522200  0.120440     0     0     0    0 0  0.0000   0.000 0.0000 0.0000 0.0000     0.0    0.0    13
   9   45  1  1 1 0  0.007500  0.041600  0.075900     0     0     0    0 0  0.0000   0.000 0.0000 0.0000 0.0000     0.0    0.0    14
   9   45  1  1 1 0  0.007500  0.041600  0.075990     0     0     0    0 0  0.0000   0.000 0.0000 0.0000 0.0000     0.0    0.0    15
   9  107  1  1 1 0  0.032300  0.161200  0.289000     0     0     0    0 0  0.0000   0.000 0.0000 0.0000 0.0000     0.0    0.0    16
  11  782  1  1 1 0  0.006100  0.030500  0.054700     0     0     0    0 0  0.0000   0.000 0.0000 0.0000 0.0000     0.0    0.0    17
  18   22  1  1 1 2  0.000000  0.278100  0.000000     0     0     0    0 0  1.0030   0.000 0.9570 1.0260 0.0017     0.0    0.0    18
  18   28  1  1 1 2  0.000000  0.172650  0.000000     0     0     0    0 0  1.0030   0.000 0.9570 1.0260 0.0017     0.0    0.0    19
  19   28  1  1 1 1  0.000000  0.237900  0.000000     0     0     0    0 0  0.9560   0.000 0.9560 0.9560 0.0000     0.0    0.0    20
  19   28  1  1 1 1  0.000000  0.237900  0.000000     0     0     0    0 0  0.9560   0.000 0.9560 0.9560 0.0000     0.0    0.0    21
  22   28  1  1 1 1  0.000000 -0.014600  0.000000     0     0     0    0 0  0.9560   0.000 0.9560 0.9560 0.0000     0.0    0.0    22
  22   28  1  1 1 1  0.000000 -0.014600  0.000000     0     0     0    0 0  0.9560   0.000 0.9560 0.9560 0.0000     0.0    0.0    23
  22   54  1  1 1 0  0.006600  0.024500  0.005800     0     0     0    0 0  0.0000   0.000 0.0000 0.0000 0.0000     0.0    0.0    24
  22  223  1  1 1 0  0.035800  0.109000  0.026800     0     0     0    0 0  0.0000   0.000 0.0000 0.0000 0.0000     0.0    0.0    25
  23   98  1  1 1 0  0.046100  0.171000  0.040790     0     0     0    0 0  0.0000   0.000 0.0000 0.0000 0.0000     0.0    0.0    26
  27  123  1  1 1 0  0.050200  0.119600  0.027540     0     0     0    0 0  0.0000   0.000 0.0000 0.0000 0.0000     0.0    0.0    27
  29  220  1  1 1 0  0.012700  0.038500  0.009500     0     0     0    0 0  0.0000   0.000 0.0000 0.0000 0.0000     0.0    0.0    28
  35  150  1  1 1 0  0.024700  0.124000  0.221000     0     0     0    0 0  0.0000   0.000 0.0000 0.0000 0.0000     0.0    0.0    29
  35  172  1  1 1 0  0.037400  0.187100  0.339200     0     0     0    0 0  0.0000   0.000 0.0000 0.0000 0.0000     0.0    0.0    30
  38   80  1  1 1 0  0.004500  0.023100  0.039700     0     0     0    0 0  0.0000   0.000 0.0000 0.0000 0.0000     0.0    0.0    31
  38   80  1  1 1 0  0.004500  0.023100  0.033700     0     0     0    0 0  0.0000   0.000 0.0000 0.0000 0.0000     0.0    0.0    32
  38  782  1  1 1 0  0.012000  0.061400  0.105400     0     0     0    0 0  0.0000   0.000 0.0000 0.0000 0.0000     0.0    0.0    33
  38  782  1  1 1 0  0.012000  0.061400  0.105400     0     0     0    0 0  0.0000   0.000 0.0000 0.0000 0.0000     0.0    0.0    34
  45   44  1  1 1 2  0.000000  0.012500  0.000000     0     0     0    0 0  1.0490   0.000 0.9500 1.0500 0.0002     0.0    0.0    35
  44   46  1  1 1 0  0.000000  0.018800  0.000000     0     0     0    0 0  0.0000   0.000 0.0000 0.0000 0.0000     0.0    0.0    36
  45  172  1  1 1 0  0.001200  0.005700  0.010260     0     0     0    0 0  0.0000   0.000 0.0000 0.0000 0.0000     0.0    0.0    37
  45  172  1  1 1 0  0.001200  0.005700  0.010260     0     0     0    0 0  0.0000   0.000 0.0000 0.0000 0.0000     0.0    0.0    38
  47  782  1  1 1 0  0.006100  0.031000  0.055570     0     0     0    0 0  0.0000   0.000 0.0000 0.0000 0.0000     0.0    0.0    39
  47  824  1  1 1 0  0.036933  0.188400  0.322070     0     0     0    0 0  0.0000   0.000 0.0000 0.0000 0.0000     0.0    0.0    40
  49  782  1  1 1 0  0.003900  0.021300  0.038900     0     0     0    0 0  0.0000   0.000 0.0000 0.0000 0.0000     0.0    0.0    41
  54   53  1  1 1 2  0.000000  0.021900  0.000000     0     0     0    0 0  1.0380   0.000 0.9000 1.1000 0.0007     0.0    0.0    42
  53   62  1  1 1 0  0.004100  0.022400  0.041320     0     0     0    0 0  0.0000   0.000 0.0000 0.0000 0.0000     0.0    0.0    43
  53   80  1  1 1 0  0.001900  0.010300  0.020400     0     0     0    0 0  0.0000   0.000 0.0000 0.0000 0.0000     0.0    0.0    44
  53   80  1  1 1 0  0.001900  0.010300  0.020400     0     0     0    0 0  0.0000   0.000 0.0000 0.0000 0.0000     0.0    0.0    45
  53   80  1  1 1 0  0.002200  0.011100  0.023200     0     0     0    0 0  0.0000   0.000 0.0000 0.0000 0.0000     0.0    0.0    46
  53   80  1  1 1 0  0.002200  0.011100  0.023200     0     0     0    0 0  0.0000   0.000 0.0000 0.0000 0.0000     0.0    0.0    47
  53   84  1  1 1 0  0.007600  0.038200  0.068400     0     0     0    0 0  0.0000   0.000 0.0000 0.0000 0.0000     0.0    0.0    48
  53   93  1  1 1 0  0.036600  0.203900  0.376700     0     0     0    0 0  0.0000   0.000 0.0000 0.0000 0.0000     0.0    0.0    49
  53  150  1  1 1 0  0.002800  0.013100  0.027000     0     0     0    0 0  0.0000   0.000 0.0000 0.0000 0.0000     0.0    0.0    50
  53  150  1  1 1 0  0.002800  0.013100  0.027000     0     0     0    0 0  0.0000   0.000 0.0000 0.0000 0.0000     0.0    0.0    51
  53  181  1  1 1 0  0.038100  0.211000  0.392000     0     0     0    0 0  0.0000   0.000 0.0000 0.0000 0.0000     0.0    0.0    52
  53  201  1  1 1 0  0.012300  0.067000  0.125640     0     0     0    0 0  0.0000   0.000 0.0000 0.0000 0.0000     0.0    0.0    53
  53  205  1  1 1 0  0.002600  0.012900  0.023800     0     0     0    0 0  0.0000   0.000 0.0000 0.0000 0.0000     0.0    0.0    54
  53  243  1  1 1 0  0.014100  0.053300  0.094900     0     0     0    0 0  0.0000   0.000 0.0000 0.0000 0.0000     0.0    0.0    55
  53  769  1  1 1 0  0.008130  0.042180  0.072350     0     0     0    0 0  0.0000   0.000 0.0000 0.0000 0.0000     0.0    0.0    56
  54  171  1  1 1 0  0.006800  0.022800  0.007100     0     0     0    0 0  0.0000   0.000 0.0000 0.0000 0.0000     0.0    0.0    57
  54  249  1  1 1 0  0.008800  0.029900  0.008600     0     0     0    0 0  0.0000   0.000 0.0000 0.0000 0.0000     0.0    0.0    58
 780   57  1  1 1 1  0.000000  0.108800  0.000000     0     0     0    0 0  0.9600   0.000 0.9600 0.9600 0.0000     0.0    0.0    59
 780   57  1  1 1 1  0.000000  0.108800  0.000000     0     0     0    0 0  0.9600   0.000 0.9600 0.9600 0.0000     0.0    0.0    60
  62   63  1  1 1 2  0.000000  0.130000  0.000000     0     0     0    0 0  0.9000   0.000 0.9000 1.1000 0.0014     0.0    0.0    61
  62   93  1  1 1 0  0.033000  0.184600  0.337100     0     0     0    0 0  0.0000   0.000 0.0000 0.0000 0.0000     0.0    0.0    62
  62  769  1  1 1 0  0.003780  0.019610  0.033650     0     0     0    0 0  0.0000   0.000 0.0000 0.0000 0.0000     0.0    0.0    63
  62  780  1  1 1 0  0.007940  0.044400  0.081120     0     0     0    0 0  0.0000   0.000 0.0000 0.0000 0.0000     0.0    0.0    64
  65   67  1  1 1 0  0.000000  0.070600  0.000000     0     0     0    0 0  0.0000   0.000 0.0000 0.0000 0.0000     0.0    0.0    65
  65   93  1  1 1 0  0.006800  0.037600  0.069000     0     0     0    0 0  0.0000   0.000 0.0000 0.0000 0.0000     0.0    0.0    66
  65  209  1  1 1 0  0.008000  0.040400  0.081300     0     0     0    0 0  0.0000   0.000 0.0000 0.0000 0.0000     0.0    0.0    67
  71  814  1  1 1 0  0.051100  0.124200  0.027500     0     0     0    0 0  0.0000   0.000 0.0000 0.0000 0.0000     0.0    0.0    68
  76  197  1  1 1 0  0.005600  0.019300  0.005420     0     0     0    0 0  0.0000   0.000 0.0000 0.0000 0.0000     0.0    0.0    69
  79  783  1  1 1 0  0.000000 -0.003110  0.000000     0     0     0    0 0  0.0000   0.000 0.0000 0.0000 0.0000     0.0    0.0    70
  79  784  1  1 1 0  0.000000 -0.003110  0.000000     0     0     0    0 0  0.0000   0.000 0.0000 0.0000 0.0000     0.0    0.0    71
  80   83  1  1 1 1  0.000000  0.124200  0.000000     0     0     0    0 0  1.0200   0.000 1.0200 1.0200 0.0000     0.0    0.0    72
  80   83  1  1 1 1  0.000000  0.124200  0.000000     0     0     0    0 0  1.0200   0.000 1.0200 1.0200 0.0000     0.0    0.0    73
  80  131  1  1 1 0  0.015300  0.076300  0.136800     0     0     0    0 0  0.0000   0.000 0.0000 0.0000 0.0000     0.0    0.0    74
  80  143  1  1 1 0  0.005400  0.028100  0.049800     0     0     0    0 0  0.0000   0.000 0.0000 0.0000 0.0000     0.0    0.0    75
  80  143  1  1 1 0  0.005400  0.028100  0.049800     0     0     0    0 0  0.0000   0.000 0.0000 0.0000 0.0000     0.0    0.0    76
  80  143  1  1 1 0  0.005100  0.026400  0.055200     0     0     0    0 0  0.0000   0.000 0.0000 0.0000 0.0000     0.0    0.0    77
  80  148  1  1 1 0  0.003400  0.017900  0.037000     0     0     0    0 0  0.0000   0.000 0.0000 0.0000 0.0000     0.0    0.0    78
  80  148  1  1 1 0  0.002700  0.014300  0.029600     0     0     0    0 0  0.0000   0.000 0.0000 0.0000 0.0000     0.0    0.0    79
  80  154  1  1 1 0  0.002500  0.032500  0.061750     0     0     0    0 0  0.0000   0.000 0.0000 0.0000 0.0000     0.0    0.0    80
  80  751  1  1 1 1  0.000000  0.009570  0.000000     0     0     0    0 0  1.0300   0.000 1.0300 1.0300 0.0000     0.0    0.0    81
  80  753  1  1 1 1  0.000000  0.009570  0.000000     0     0     0    0 0  1.0300   0.000 1.0300 1.0300 0.0000     0.0    0.0    82
  80  757  1  1 1 1  0.000000  0.009570  0.000000     0     0     0    0 0  1.0300   0.000 1.0300 1.0300 0.0000     0.0    0.0    83
  81   83  1  1 1 0  0.000000 -0.003000  0.000000     0     0     0    0 0  0.0000   0.000 0.0000 0.0000 0.0000     0.0    0.0    84
  81   83  1  1 1 0  0.000000 -0.003000  0.000000     0     0     0    0 0  0.0000   0.000 0.0000 0.0000 0.0000     0.0    0.0    85
  82   83  1  1 1 0  0.000000  0.099900  0.000000     0     0     0    0 0  0.0000   0.000 0.0000 0.0000 0.0000     0.0    0.0    86
  82   83  1  1 1 0  0.000000  0.099900  0.000000     0     0     0    0 0  0.0000   0.000 0.0000 0.0000 0.0000     0.0    0.0    87
  84  165  1  1 1 0  0.040000  0.199000  0.357000     0     0     0    0 0  0.0000   0.000 0.0000 0.0000 0.0000     0.0    0.0    88
  86  224  1  1 1 0  0.010500  0.052500  0.094050     0     0     0    0 0  0.0000   0.000 0.0000 0.0000 0.0000     0.0    0.0    89
  86  812  1  1 1 0  0.021100  0.084200  0.146250     0     0     0    0 0  0.0000   0.000 0.0000 0.0000 0.0000     0.0    0.0    90
  93   94  1  1 1 0  0.000000  0.023600  0.000000     0     0     0    0 0  0.0000   0.000 0.0000 0.0000 0.0000     0.0    0.0    91
  93  181  1  1 1 0  0.005100  0.028600  0.052300     0     0     0    0 0  0.0000   0.000 0.0000 0.0000 0.0000     0.0    0.0    92
  93  189  1  1 1 0  0.032700  0.163400  0.292920     0     0     0    0 0  0.0000   0.000 0.0000 0.0000 0.0000     0.0    0.0    93
  93  209  1  1 1 0  0.013500  0.074800  0.013680     0     0     0    0 0  0.0000   0.000 0.0000 0.0000 0.0000     0.0    0.0    94
  93  243  1  1 1 0  0.029800  0.164500  0.300310     0     0     0    0 0  0.0000   0.000 0.0000 0.0000 0.0000     0.0    0.0    95
  98   99  1  1 1 1  0.000000  0.096300  0.000000     0     0     0    0 0  1.0740   0.000 1.0740 1.0740 0.0000     0.0    0.0    96
  98  182  1  1 1 0  0.005600  0.018900  0.005500     0     0     0    0 0  0.0000   0.000 0.0000 0.0000 0.0000     0.0    0.0    97
  98  182  1  1 1 0  0.005600  0.018900  0.005500     0     0     0    0 0  0.0000   0.000 0.0000 0.0000 0.0000     0.0    0.0    98
  98  208  1  1 1 0  0.096700  0.234800  0.051900     0     0     0    0 0  0.0000   0.000 0.0000 0.0000 0.0000     0.0    0.0    99
 109  243  1  1 1 0  0.004800  0.023900  0.042800     0     0     0    0 0  0.0000   0.000 0.0000 0.0000 0.0000     0.0    0.0   100
 111  112  1  1 1 2  0.000000  0.124500  0.000000     0     0     0    0 0  1.0310   0.000 0.9460 1.1090 0.0020     0.0    0.0   101
 111  206  1  1 1 0  0.092700  0.140700  0.030140     0     0     0    0 0  0.0000   0.000 0.0000 0.0000 0.0000     0.0    0.0   102
 111  219  1  1 1 0  0.103900  0.253600  0.059500     0     0     0    0 0  0.0000   0.000 0.0000 0.0000 0.0000     0.0    0.0   103
 111  242  1  1 1 0  0.075500  0.179700  0.041400     0     0     0    0 0  0.0000   0.000 0.0000 0.0000 0.0000     0.0    0.0   104
 112  127  1  1 1 0  0.011500  0.057200  0.102600     0     0     0    0 0  0.0000   0.000 0.0000 0.0000 0.0000     0.0    0.0   105
 112  723  1  1 1 0  0.009660  0.074100  0.172400     0     0     0    0 0  0.0000   0.000 0.0000 0.0000 0.0000     0.0    0.0   106
 114  117  1  1 1 1  0.000000 -0.013300  0.000000     0     0     0    0 0  1.0300   0.000 1.0300 1.0300 0.0000     0.0    0.0   107
 114  195  1  1 1 0  0.011200  0.055900  0.100200     0     0     0    0 0  0.0000   0.000 0.0000 0.0000 0.0000     0.0    0.0   108
 115  117  1  1 1 0  0.000000  0.181900  0.000000     0     0     0    0 0  0.0000   0.000 0.0000 0.0000 0.0000     0.0    0.0   109
 116  117  1  1 1 0  0.000000  0.114500  0.000000     0     0     0    0 0  0.0000   0.000 0.0000 0.0000 0.0000     0.0    0.0   110
 119  120  1  1 1 2  0.000000  0.168600  0.000000     0     0     0    0 0  0.9000   0.000 0.9000 1.1000 0.0024     0.0    0.0   111
 119  122  1  1 1 1  0.000000  0.181900  0.000000     0     0     0    0 0  1.0200   0.000 1.0200 1.0200 0.0000     0.0    0.0   112
 119  186  1  1 1 0  0.028700  0.143100  0.256500     0     0     0    0 0  0.0000   0.000 0.0000 0.0000 0.0000     0.0    0.0   113
 120  122  1  1 1 0  0.000000 -0.013300  0.000000     0     0     0    0 0  0.0000   0.000 0.0000 0.0000 0.0000     0.0    0.0   114
 121  122  1  1 1 0  0.000000  0.114500  0.000000     0     0     0    0 0  0.0000   0.000 0.0000 0.0000 0.0000     0.0    0.0   115
 123  173  1  1 1 0  0.088600  0.210900  0.048600     0     0     0    0 0  0.0000   0.000 0.0000 0.0000 0.0000     0.0    0.0   116
 127  782  1  1 1 0  0.012400  0.063700  0.103900     0     0     0    0 0  0.0000   0.000 0.0000 0.0000 0.0000     0.0    0.0   117
 127  812  1  1 1 0  0.035700  0.183500  0.315700     0     0     0    0 0  0.0000   0.000 0.0000 0.0000 0.0000     0.0    0.0   118
 131  135  1  1 1 0  0.000000  0.090400  0.000000     0     0     0    0 0  0.0000   0.000 0.0000 0.0000 0.0000     0.0    0.0   119
 140  143  1  1 1 0  0.001400  0.008800  0.019700     0     0     0    0 0  0.0000   0.000 0.0000 0.0000 0.0000     0.0    0.0   120
 140  154  1  1 1 0  0.000500  0.002700  0.006110     0     0     0    0 0  0.0000   0.000 0.0000 0.0000 0.0000     0.0    0.0   121
 143  146  1  1 1 1  0.000000  0.111400  0.000000     0     0     0    0 0  0.9600   0.000 0.9600 0.9600 0.0000     0.0    0.0   122
 143  157  1  1 1 0  0.001800  0.008400  0.017800     0     0     0    0 0  0.0000   0.000 0.0000 0.0000 0.0000     0.0    0.0   123
 143  162  1  1 1 1  0.000000  0.111400  0.000000     0     0     0    0 0  0.9600   0.000 0.9600 0.9600 0.0000     0.0    0.0   124
 144  146  1  1 1 0  0.000000 -0.002800  0.000000     0     0     0    0 0  0.0000   0.000 0.0000 0.0000 0.0000     0.0    0.0   125
 144  162  1  1 1 0  0.000000 -0.003000  0.000000     0     0     0    0 0  0.0000   0.000 0.0000 0.0000 0.0000     0.0    0.0   126
 145  146  1  1 1 0  0.000000  0.109400  0.000000     0     0     0    0 0  0.0000   0.000 0.0000 0.0000 0.0000     0.0    0.0   127
 145  162  1  1 1 0  0.000000  0.109400  0.000000     0     0     0    0 0  0.0000   0.000 0.0000 0.0000 0.0000     0.0    0.0   128
 147  150  1  1 1 0  0.000800  0.004800  0.010600     0     0     0    0 0  0.0000   0.000 0.0000 0.0000 0.0000     0.0    0.0   129
 147  150  1  1 1 0  0.000800  0.004800  0.010600     0     0     0    0 0  0.0000   0.000 0.0000 0.0000 0.0000     0.0    0.0   130
 150  153  1  1 1 0  0.000000  0.132400  0.000000     0     0     0    0 0  0.0000   0.000 0.0000 0.0000 0.0000     0.0    0.0   131
 151  153  1  1 1 0  0.000000 -0.004000  0.000000     0     0     0    0 0  0.0000   0.000 0.0000 0.0000 0.0000     0.0    0.0   132
 152  153  1  1 1 0  0.000000  0.108400  0.000000     0     0     0    0 0  0.0000   0.000 0.0000 0.0000 0.0000     0.0    0.0   133
 165  164  1  1 1 2  0.000000  0.128800  0.000000     0     0     0    0 0  0.8540   0.000 0.8540 1.0030 0.0009     0.0    0.0   134
 166  164  1  1 1 0  0.000000 -0.002500  0.000000     0     0     0    0 0  0.0000   0.000 0.0000 0.0000 0.0000     0.0    0.0   135
 164  167  1  1 1 0  0.000000  0.107400  0.000000     0     0     0    0 0  0.0000   0.000 0.0000 0.0000 0.0000     0.0    0.0   136
 165  166  1  1 1 2  0.000000  0.128400  0.000000     0     0     0    0 0  1.1000   0.000 0.9000 1.1000 0.0017     0.0    0.0   137
 165  172  1  1 1 0  0.005560  0.078910  0.343900     0     0     0    0 0  0.0000   0.000 0.0000 0.0000 0.0000     0.0    0.0   138
 165  186  1  1 1 0  0.009100  0.045500  0.081570     0     0     0    0 0  0.0000   0.000 0.0000 0.0000 0.0000     0.0    0.0   139
 168  171  1  1 1 0  0.001300  0.004500  0.001400     0     0     0    0 0  0.0000   0.000 0.0000 0.0000 0.0000     0.0    0.0   140
 168  197  1  1 1 0  0.008200  0.027700  0.004000     0     0     0    0 0  0.0000   0.000 0.0000 0.0000 0.0000     0.0    0.0   141
 173  172  1  1 1 0  0.000000  0.166700  0.000000     0     0     0    0 0  0.0000   0.000 0.0000 0.0000 0.0000     0.0    0.0   142
 172  175  1  1 1 0  0.000000  0.061800  0.000000     0     0     0    0 0  0.0000   0.000 0.0000 0.0000 0.0000     0.0    0.0   143
 172  176  1  1 1 0  0.000000  0.030300  0.000000     0     0     0    0 0  0.0000   0.000 0.0000 0.0000 0.0000     0.0    0.0   144
 172  179  1  1 1 0  0.019500  0.096600  0.179100     0     0     0    0 0  0.0000   0.000 0.0000 0.0000 0.0000     0.0    0.0   145
 180  179  1  1 1 2  0.000000  0.140000  0.000000     0     0     0    0 0  1.0250   0.000 0.9000 1.1000 0.0050     0.0    0.0   146
 179  186  1  1 1 0  0.009500  0.047000  0.087000     0     0     0    0 0  0.0000   0.000 0.0000 0.0000 0.0000     0.0    0.0   147
 182  181  1  1 1 0  0.000000  0.043600  0.000000     0     0     0    0 0  0.0000   0.000 0.0000 0.0000 0.0000     0.0    0.0   148
 181  183  1  1 1 0  0.000000  0.071900  0.000000     0     0     0    0 0  0.0000   0.000 0.0000 0.0000 0.0000     0.0    0.0   149
 181  233  1  1 1 0  0.014700  0.056100  0.097500     0     0     0    0 0  0.0000   0.000 0.0000 0.0000 0.0000     0.0    0.0   150
 181  243  1  1 1 0  0.034100  0.128500  0.228500     0     0     0    0 0  0.0000   0.000 0.0000 0.0000 0.0000     0.0    0.0   151
 185  184  1  1 1 0  0.000000  0.107400  0.000000     0     0     0    0 0  0.0000   0.000 0.0000 0.0000 0.0000     0.0    0.0   152
 186  184  1  1 1 1  0.000000  0.128800  0.000000     0     0     0    0 0  0.9500   0.000 0.9500 0.9500 0.0000     0.0    0.0   153
 187  184  1  1 1 0  0.000000 -0.002500  0.000000     0     0     0    0 0  0.0000   0.000 0.0000 0.0000 0.0000     0.0    0.0   154
 186  188  1  1 1 0  0.003200  0.016200  0.029100     0     0     0    0 0  0.0000   0.000 0.0000 0.0000 0.0000     0.0    0.0   155
 189  203  1  1 1 0  0.014300  0.071600  0.128250     0     0     0    0 0  0.0000   0.000 0.0000 0.0000 0.0000     0.0    0.0   156
 189  230  1  1 1 0  0.010200  0.056700  0.103600     0     0     0    0 0  0.0000   0.000 0.0000 0.0000 0.0000     0.0    0.0   157
 193  812  1  1 1 0  0.009600  0.047700  0.085500     0     0     0    0 0  0.0000   0.000 0.0000 0.0000 0.0000     0.0    0.0   158
 195  203  1  1 1 0  0.017200  0.085900  0.153900     0     0     0    0 0  0.0000   0.000 0.0000 0.0000 0.0000     0.0    0.0   159
 195  713  1  1 1 0  0.005515  0.042115  0.097920     0     0     0    0 0  0.0000   0.000 0.0000 0.0000 0.0000     0.0    0.0   160
 197  200  1  1 1 0  0.000000 -0.016500  0.000000     0     0     0    0 0  0.0000   0.000 0.0000 0.0000 0.0000     0.0    0.0   161
 197  250  1  1 1 0  0.005600  0.018800  0.005500     0     0     0    0 0  0.0000   0.000 0.0000 0.0000 0.0000     0.0    0.0   162
 198  200  1  1 1 2  0.000000  0.223400  0.000000     0     0     0    0 0  1.0280   0.000 0.8610 1.0520 0.0042     0.0    0.0   163
 199  200  1  1 1 0  0.000000  0.140600  0.000000     0     0     0    0 0  0.0000   0.000 0.0000 0.0000 0.0000     0.0    0.0   164
 203  713  1  1 1 0  0.006620  0.050540  0.117500     0     0     0    0 0  0.0000   0.000 0.0000 0.0000 0.0000     0.0    0.0   165
 204  239  1  1 1 0  0.000000 -0.013300  0.000000     0     0     0    0 0  0.0000   0.000 0.0000 0.0000 0.0000     0.0    0.0   166
 204  239  1  1 1 0  0.000000 -0.013300  0.000000     0     0     0    0 0  0.0000   0.000 0.0000 0.0000 0.0000     0.0    0.0   167
 206  228  1  1 1 0  0.061800  0.093800  0.020100     0     0     0    0 0  0.0000   0.000 0.0000 0.0000 0.0000     0.0    0.0   168
 209  217  1  1 1 0  0.015400  0.086000  0.157300     0     0     0    0 0  0.0000   0.000 0.0000 0.0000 0.0000     0.0    0.0   169
 213  233  1  1 1 0  0.015800  0.065800  0.114300     0     0     0    0 0  0.0000   0.000 0.0000 0.0000 0.0000     0.0    0.0   170
 213  812  1  1 1 0  0.018300  0.091500  0.164100     0     0     0    0 0  0.0000   0.000 0.0000 0.0000 0.0000     0.0    0.0   171
 220  223  1  1 1 0  0.013500  0.041100  0.010200     0     0     0    0 0  0.0000   0.000 0.0000 0.0000 0.0000     0.0    0.0   172
 224  230  1  1 1 0  0.008600  0.042900  0.076900     0     0     0    0 0  0.0000   0.000 0.0000 0.0000 0.0000     0.0    0.0   173
 230  713  1  1 1 0  0.014340  0.109500  0.254680     0     0     0    0 0  0.0000   0.000 0.0000 0.0000 0.0000     0.0    0.0   174
 234  762  1  1 1 0  0.001060  0.013710  1.604210     0     0     0    0 0  0.0000   0.000 0.0000 0.0000 0.0000     0.0    0.0   175
 234 1477  1  1 1 0  0.000000  0.014000  0.000000     0     0     0    0 0  0.0000   0.000 0.0000 0.0000 0.0000     0.0    0.0   176
 236  239  1  1 1 2  0.000000  0.090950  0.000000     0     0     0    0 0  0.9000   0.000 0.9000 1.1000 0.0024     0.0    0.0   177
 238  239  1  1 1 0  0.000000  0.114500  0.000000     0     0     0    0 0  0.0000   0.000 0.0000 0.0000 0.0000     0.0    0.0   178
 238  239  1  1 1 0  0.000000  0.114500  0.000000     0     0     0    0 0  0.0000   0.000 0.0000 0.0000 0.0000     0.0    0.0   179
 243  246  1  1 1 2  0.000000  0.182000  0.000000     0     0     0    0 0  1.0500   0.000 0.9500 1.0500 0.0000     0.0    0.0   180
 243  248  1  1 1 2  0.000000  0.172800  0.000000     0     0     0    0 0  0.9500   0.000 0.9500 1.0500 0.0013     0.0    0.0   181
 245  246  1  1 1 0  0.000000  0.105600  0.000000     0     0     0    0 0  0.0000   0.000 0.0000 0.0000 0.0000     0.0    0.0   182
 248  246  1  1 1 0  0.000000 -0.009200  0.000000     0     0     0    0 0  0.0000   0.000 0.0000 0.0000 0.0000     0.0    0.0   183
 249  250  1  1 1 0  0.001800  0.006000  0.001800     0     0     0    0 0  0.0000   0.000 0.0000 0.0000 0.0000     0.0    0.0   184
 252  262  1  1 1 0  0.009900  0.034000  0.009400     0     0     0    0 0  0.0000   0.000 0.0000 0.0000 0.0000     0.0    0.0   185
 252  343  1  1 1 0  0.026900  0.092300  0.025500     0     0     0    0 0  0.0000   0.000 0.0000 0.0000 0.0000     0.0    0.0   186
 257  809  1  1 1 0  0.014800  0.053600  0.013500     0     0     0    0 0  0.0000   0.000 0.0000 0.0000 0.0000     0.0    0.0   187
 260  809  1  1 1 0  0.010600  0.036800  0.010200     0     0     0    0 0  0.0000   0.000 0.0000 0.0000 0.0000     0.0    0.0   188
 262  261  1  1 1 2  0.000000  0.098700  0.000000     0     0     0    0 0  0.9760   0.000 0.9000 1.1000 0.0065     0.0    0.0   189
 261  266  1  1 1 0  0.218700  0.419700  0.007500     0     0     0    0 0  0.0000   0.000 0.0000 0.0000 0.0000     0.0    0.0   190
 262  343  1  1 1 0  0.028800  0.108800  0.027000     0     0     0    0 0  0.0000   0.000 0.0000 0.0000 0.0000     0.0    0.0   191
 262  809  1  1 1 0  0.010600  0.038400  0.009600     0     0     0    0 0  0.0000   0.000 0.0000 0.0000 0.0000     0.0    0.0   192
 262  809  1  1 1 0  0.010600  0.038400  0.009600     0     0     0    0 0  0.0000   0.000 0.0000 0.0000 0.0000     0.0    0.0   193
 264  809  1  1 1 0  0.020400  0.069800  0.019700     0     0     0    0 0  0.0000   0.000 0.0000 0.0000 0.0000     0.0    0.0   194
 269  290  1  1 1 0  0.061200  0.152500  0.040300     0     0     0    0 0  0.0000   0.000 0.0000 0.0000 0.0000     0.0    0.0   195
 269  290  1  1 1 0  0.061200  0.152500  0.040300     0     0     0    0 0  0.0000   0.000 0.0000 0.0000 0.0000     0.0    0.0   196
 269  778  1  1 1 2  0.000000  0.060800  0.000000     0     0     0    0 0  1.0500   0.000 0.9500 1.0500 0.0009     0.0    0.0   197
 273  276  1  1 1 0  0.008000  0.020300  0.005300     0     0     0    0 0  0.0000   0.000 0.0000 0.0000 0.0000     0.0    0.0   198
 273  795  1  1 1 0  0.006000  0.015200  0.004000     0     0     0    0 0  0.0000   0.000 0.0000 0.0000 0.0000     0.0    0.0   199
 275  274  1  1 1 2  0.000000  0.585800  0.000000     0     0     0    0 0  0.9690   0.000 0.9500 1.0500 0.0077     0.0    0.0   200
...
-999
LOSS ZONES FOLLOWS                    1 ITEMS
  1 787-BUS
-99
INTERCHANGE DATA FOLLOWS              0 ITEMS
-9
TIE LINES FOLLOWS                     0 ITEMS
-999
END OF DATA
